*Heading
** Job name: lowres Model name: Model-1
** Generated by: Abaqus/CAE 2018
*Preprint, echo=NO, model=NO, history=NO, contact=NO
**
** PARTS
**
*Part, name=Part-1
*End Part
**  
**
** ASSEMBLY
**
*Assembly, name=Assembly
**  
*Instance, name=Part-1-1, part=Part-1
         10.,           0.,          10.
         10.,           0.,          10., 8.99999998731195,           0.,          10., 89.9999992730282
*Node
      1,         -10.,         -10.,          60.
      2,           0.,         -10.,          60.
      3,           0.,         -10.,          70.
      4,         -10.,         -10.,          70.
      5,          10.,         -10.,          70.
      6,         -10.,         -10.,           0.
      7,          10.,         -10.,           0.
      8,          -9.,         -10.,          60.
      9,          -8.,         -10.,          60.
     10,          -7.,         -10.,          60.
     11,          -6.,         -10.,          60.
     12,          -5.,         -10.,          60.
     13,          -4.,         -10.,          60.
     14,          -3.,         -10.,          60.
     15,          -2.,         -10.,          60.
     16,          -1.,         -10.,          60.
     17,           0.,         -10.,          61.
     18,           0.,         -10.,          62.
     19,           0.,         -10.,          63.
     20,           0.,         -10.,          64.
** ... 31291 like lines cut
*Element, type=C3D8
    1,    43,   200,     8,     1,  1534,  1691,  1499,  1492
    2,   200,   201,     9,     8,  1691,  1692,  1500,  1499
    3,   201,   202,    10,     9,  1692,  1693,  1501,  1500
    4,   202,   203,    11,    10,  1693,  1694,  1502,  1501
    5,   203,   204,    12,    11,  1694,  1695,  1503,  1502
    6,   204,   205,    13,    12,  1695,  1696,  1504,  1503
    7,   205,   206,    14,    13,  1696,  1697,  1505,  1504
    8,   206,   207,    15,    14,  1697,  1698,  1506,  1505
    9,   207,   208,    16,    15,  1698,  1699,  1507,  1506
   10,   208,    17,     2,    16,  1699,  1508,  1493,  1507
   11,    42,   209,   200,    43,  1533,  1700,  1691,  1534
   12,   209,   210,   201,   200,  1700,  1701,  1692,  1691
   13,   210,   211,   202,   201,  1701,  1702,  1693,  1692
   14,   211,   212,   203,   202,  1702,  1703,  1694,  1693
   15,   212,   213,   204,   203,  1703,  1704,  1695,  1694
   16,   213,   214,   205,   204,  1704,  1705,  1696,  1695
   17,   214,   215,   206,   205,  1705,  1706,  1697,  1696
   18,   215,   216,   207,   206,  1706,  1707,  1698,  1697
   19,   216,   217,   208,   207,  1707,  1708,  1699,  1698
   20,   217,    18,    17,   208,  1708,  1509,  1508,  1699
** ... 27980 like lines cut
*Nset, nset=Set-1, generate
     1,  31311,      1
*Elset, elset=Set-1, generate
     1,  28000,      1
** Section: tops
*Solid Section, elset=Set-1, material=tops
,
*End Instance
**  
*Nset, nset=Set-1, instance=Part-1-1
     3,     4,     5,    26,    27,    28,    29,    30,    31,    32,    33,    34,   191,   192,   193,   194
   195,   196,   197,   198,   199,  1494,  1495,  1496,  1517,  1518,  1519,  1520,  1521,  1522,  1523,  1524
  1525,  1682,  1683,  1684,  1685,  1686,  1687,  1688,  1689,  1690,  2985,  2986,  2987,  3008,  3009,  3010
  3011,  3012,  3013,  3014,  3015,  3016,  3173,  3174,  3175,  3176,  3177,  3178,  3179,  3180,  3181,  4476
  4477,  4478,  4499,  4500,  4501,  4502,  4503,  4504,  4505,  4506,  4507,  4664,  4665,  4666,  4667,  4668
  4669,  4670,  4671,  4672,  5967,  5968,  5969,  5990,  5991,  5992,  5993,  5994,  5995,  5996,  5997,  5998
  6155,  6156,  6157,  6158,  6159,  6160,  6161,  6162,  6163,  7458,  7459,  7460,  7481,  7482,  7483,  7484
  7485,  7486,  7487,  7488,  7489,  7646,  7647,  7648,  7649,  7650,  7651,  7652,  7653,  7654,  8949,  8950
  8951,  8972,  8973,  8974,  8975,  8976,  8977,  8978,  8979,  8980,  9137,  9138,  9139,  9140,  9141,  9142
  9143,  9144,  9145, 10440, 10441, 10442, 10463, 10464, 10465, 10466, 10467, 10468, 10469, 10470, 10471, 10628
 10629, 10630, 10631, 10632, 10633, 10634, 10635, 10636, 11931, 11932, 11933, 11954, 11955, 11956, 11957, 11958
 11959, 11960, 11961, 11962, 12119, 12120, 12121, 12122, 12123, 12124, 12125, 12126, 12127, 13422, 13423, 13424
 13445, 13446, 13447, 13448, 13449, 13450, 13451, 13452, 13453, 13610, 13611, 13612, 13613, 13614, 13615, 13616
 13617, 13618, 14913, 14914, 14915, 14936, 14937, 14938, 14939, 14940, 14941, 14942, 14943, 14944, 15101, 15102
 15103, 15104, 15105, 15106, 15107, 15108, 15109, 16404, 16405, 16406, 16427, 16428, 16429, 16430, 16431, 16432
 16433, 16434, 16435, 16592, 16593, 16594, 16595, 16596, 16597, 16598, 16599, 16600, 17895, 17896, 17897, 17918
 17919, 17920, 17921, 17922, 17923, 17924, 17925, 17926, 18083, 18084, 18085, 18086, 18087, 18088, 18089, 18090
 18091, 19386, 19387, 19388, 19409, 19410, 19411, 19412, 19413, 19414, 19415, 19416, 19417, 19574, 19575, 19576
 19577, 19578, 19579, 19580, 19581, 19582, 20877, 20878, 20879, 20900, 20901, 20902, 20903, 20904, 20905, 20906
 20907, 20908, 21065, 21066, 21067, 21068, 21069, 21070, 21071, 21072, 21073, 22368, 22369, 22370, 22391, 22392
** ... 8 like lines cut
*Elset, elset=Set-1, instance=Part-1-1
    91,    92,    93,    94,    95,    96,    97,    98,    99,   100,   191,   192,   193,   194,   195,   196
   197,   198,   199,   200,  1491,  1492,  1493,  1494,  1495,  1496,  1497,  1498,  1499,  1500,  1591,  1592
  1593,  1594,  1595,  1596,  1597,  1598,  1599,  1600,  2891,  2892,  2893,  2894,  2895,  2896,  2897,  2898
  2899,  2900,  2991,  2992,  2993,  2994,  2995,  2996,  2997,  2998,  2999,  3000,  4291,  4292,  4293,  4294
  4295,  4296,  4297,  4298,  4299,  4300,  4391,  4392,  4393,  4394,  4395,  4396,  4397,  4398,  4399,  4400
  5691,  5692,  5693,  5694,  5695,  5696,  5697,  5698,  5699,  5700,  5791,  5792,  5793,  5794,  5795,  5796
  5797,  5798,  5799,  5800,  7091,  7092,  7093,  7094,  7095,  7096,  7097,  7098,  7099,  7100,  7191,  7192
  7193,  7194,  7195,  7196,  7197,  7198,  7199,  7200,  8491,  8492,  8493,  8494,  8495,  8496,  8497,  8498
  8499,  8500,  8591,  8592,  8593,  8594,  8595,  8596,  8597,  8598,  8599,  8600,  9891,  9892,  9893,  9894
  9895,  9896,  9897,  9898,  9899,  9900,  9991,  9992,  9993,  9994,  9995,  9996,  9997,  9998,  9999, 10000
 11291, 11292, 11293, 11294, 11295, 11296, 11297, 11298, 11299, 11300, 11391, 11392, 11393, 11394, 11395, 11396
 11397, 11398, 11399, 11400, 12691, 12692, 12693, 12694, 12695, 12696, 12697, 12698, 12699, 12700, 12791, 12792
 12793, 12794, 12795, 12796, 12797, 12798, 12799, 12800, 14091, 14092, 14093, 14094, 14095, 14096, 14097, 14098
 14099, 14100, 14191, 14192, 14193, 14194, 14195, 14196, 14197, 14198, 14199, 14200, 15491, 15492, 15493, 15494
 15495, 15496, 15497, 15498, 15499, 15500, 15591, 15592, 15593, 15594, 15595, 15596, 15597, 15598, 15599, 15600
 16891, 16892, 16893, 16894, 16895, 16896, 16897, 16898, 16899, 16900, 16991, 16992, 16993, 16994, 16995, 16996
 16997, 16998, 16999, 17000, 18291, 18292, 18293, 18294, 18295, 18296, 18297, 18298, 18299, 18300, 18391, 18392
 18393, 18394, 18395, 18396, 18397, 18398, 18399, 18400, 19691, 19692, 19693, 19694, 19695, 19696, 19697, 19698
 19699, 19700, 19791, 19792, 19793, 19794, 19795, 19796, 19797, 19798, 19799, 19800, 21091, 21092, 21093, 21094
 21095, 21096, 21097, 21098, 21099, 21100, 21191, 21192, 21193, 21194, 21195, 21196, 21197, 21198, 21199, 21200
** ... 5 like lines cut
*Nset, nset=Set-3, instance=Part-1-1
     6,     7,   103,   104,   105,   106,   107,   108,   109,   110,   111,   112,   113,   114,   115,   116
   117,   118,   119,   120,   121,  1497,  1498,  1594,  1595,  1596,  1597,  1598,  1599,  1600,  1601,  1602
  1603,  1604,  1605,  1606,  1607,  1608,  1609,  1610,  1611,  1612,  2988,  2989,  3085,  3086,  3087,  3088
  3089,  3090,  3091,  3092,  3093,  3094,  3095,  3096,  3097,  3098,  3099,  3100,  3101,  3102,  3103,  4479
  4480,  4576,  4577,  4578,  4579,  4580,  4581,  4582,  4583,  4584,  4585,  4586,  4587,  4588,  4589,  4590
  4591,  4592,  4593,  4594,  5970,  5971,  6067,  6068,  6069,  6070,  6071,  6072,  6073,  6074,  6075,  6076
  6077,  6078,  6079,  6080,  6081,  6082,  6083,  6084,  6085,  7461,  7462,  7558,  7559,  7560,  7561,  7562
  7563,  7564,  7565,  7566,  7567,  7568,  7569,  7570,  7571,  7572,  7573,  7574,  7575,  7576,  8952,  8953
  9049,  9050,  9051,  9052,  9053,  9054,  9055,  9056,  9057,  9058,  9059,  9060,  9061,  9062,  9063,  9064
  9065,  9066,  9067, 10443, 10444, 10540, 10541, 10542, 10543, 10544, 10545, 10546, 10547, 10548, 10549, 10550
 10551, 10552, 10553, 10554, 10555, 10556, 10557, 10558, 11934, 11935, 12031, 12032, 12033, 12034, 12035, 12036
 12037, 12038, 12039, 12040, 12041, 12042, 12043, 12044, 12045, 12046, 12047, 12048, 12049, 13425, 13426, 13522
 13523, 13524, 13525, 13526, 13527, 13528, 13529, 13530, 13531, 13532, 13533, 13534, 13535, 13536, 13537, 13538
 13539, 13540, 14916, 14917, 15013, 15014, 15015, 15016, 15017, 15018, 15019, 15020, 15021, 15022, 15023, 15024
 15025, 15026, 15027, 15028, 15029, 15030, 15031, 16407, 16408, 16504, 16505, 16506, 16507, 16508, 16509, 16510
 16511, 16512, 16513, 16514, 16515, 16516, 16517, 16518, 16519, 16520, 16521, 16522, 17898, 17899, 17995, 17996
 17997, 17998, 17999, 18000, 18001, 18002, 18003, 18004, 18005, 18006, 18007, 18008, 18009, 18010, 18011, 18012
 18013, 19389, 19390, 19486, 19487, 19488, 19489, 19490, 19491, 19492, 19493, 19494, 19495, 19496, 19497, 19498
 19499, 19500, 19501, 19502, 19503, 19504, 20880, 20881, 20977, 20978, 20979, 20980, 20981, 20982, 20983, 20984
 20985, 20986, 20987, 20988, 20989, 20990, 20991, 20992, 20993, 20994, 20995, 22371, 22372, 22468, 22469, 22470
** ... 8 like lines cut
*Elset, elset=Set-3, instance=Part-1-1
  1381,  1382,  1383,  1384,  1385,  1386,  1387,  1388,  1389,  1390,  1391,  1392,  1393,  1394,  1395,  1396
  1397,  1398,  1399,  1400,  2781,  2782,  2783,  2784,  2785,  2786,  2787,  2788,  2789,  2790,  2791,  2792
  2793,  2794,  2795,  2796,  2797,  2798,  2799,  2800,  4181,  4182,  4183,  4184,  4185,  4186,  4187,  4188
  4189,  4190,  4191,  4192,  4193,  4194,  4195,  4196,  4197,  4198,  4199,  4200,  5581,  5582,  5583,  5584
  5585,  5586,  5587,  5588,  5589,  5590,  5591,  5592,  5593,  5594,  5595,  5596,  5597,  5598,  5599,  5600
  6981,  6982,  6983,  6984,  6985,  6986,  6987,  6988,  6989,  6990,  6991,  6992,  6993,  6994,  6995,  6996
  6997,  6998,  6999,  7000,  8381,  8382,  8383,  8384,  8385,  8386,  8387,  8388,  8389,  8390,  8391,  8392
  8393,  8394,  8395,  8396,  8397,  8398,  8399,  8400,  9781,  9782,  9783,  9784,  9785,  9786,  9787,  9788
  9789,  9790,  9791,  9792,  9793,  9794,  9795,  9796,  9797,  9798,  9799,  9800, 11181, 11182, 11183, 11184
 11185, 11186, 11187, 11188, 11189, 11190, 11191, 11192, 11193, 11194, 11195, 11196, 11197, 11198, 11199, 11200
 12581, 12582, 12583, 12584, 12585, 12586, 12587, 12588, 12589, 12590, 12591, 12592, 12593, 12594, 12595, 12596
 12597, 12598, 12599, 12600, 13981, 13982, 13983, 13984, 13985, 13986, 13987, 13988, 13989, 13990, 13991, 13992
 13993, 13994, 13995, 13996, 13997, 13998, 13999, 14000, 15381, 15382, 15383, 15384, 15385, 15386, 15387, 15388
 15389, 15390, 15391, 15392, 15393, 15394, 15395, 15396, 15397, 15398, 15399, 15400, 16781, 16782, 16783, 16784
 16785, 16786, 16787, 16788, 16789, 16790, 16791, 16792, 16793, 16794, 16795, 16796, 16797, 16798, 16799, 16800
 18181, 18182, 18183, 18184, 18185, 18186, 18187, 18188, 18189, 18190, 18191, 18192, 18193, 18194, 18195, 18196
 18197, 18198, 18199, 18200, 19581, 19582, 19583, 19584, 19585, 19586, 19587, 19588, 19589, 19590, 19591, 19592
 19593, 19594, 19595, 19596, 19597, 19598, 19599, 19600, 20981, 20982, 20983, 20984, 20985, 20986, 20987, 20988
 20989, 20990, 20991, 20992, 20993, 20994, 20995, 20996, 20997, 20998, 20999, 21000, 22381, 22382, 22383, 22384
 22385, 22386, 22387, 22388, 22389, 22390, 22391, 22392, 22393, 22394, 22395, 22396, 22397, 22398, 22399, 22400
** ... 5 like lines cut
*Nset, nset=full, instance=Part-1-1
  17,  18,  19,  20,  21,  22,  23,  24,  25, 200, 201, 202, 203, 204, 205, 206
 207, 208, 209, 210, 211, 212, 213, 214, 215, 216, 217, 218, 219, 220, 221, 222
 223, 224, 225, 226, 227, 228, 229, 230, 231, 232, 233, 234, 235, 236, 237, 238
 239, 240, 241, 242, 243, 244, 245, 246, 247, 248, 249, 250, 251, 252, 253, 254
 255, 256, 257, 258, 259, 260, 261, 262, 263, 264, 265, 266, 267, 268, 269, 270
 271, 272, 273, 274, 275, 276, 277, 278, 279, 280
*Nset, nset=half, instance=Part-1-1
   2,   3,   8,   9,  10,  11,  12,  13,  14,  15,  16,  26,  27,  28,  29,  30
  31,  32,  33,  34,  35,  36,  37,  38,  39,  40,  41,  42,  43, 290, 299, 308
 317, 326, 335, 344, 353, 362
*Nset, nset=quarter, instance=Part-1-1
   1,   4, 199, 281
*Elset, elset=_Surf-1_S1, internal, instance=Part-1-1, generate
    1,  1400,     1
*Surface, type=ELEMENT, name=Surf-1
_Surf-1_S1, S1
*Elset, elset=_Surf-2_S1, internal, instance=Part-1-1, generate
   1,  100,    1
*Surface, type=ELEMENT, name=Surf-2
_Surf-2_S1, S1
*End Assembly
** 
** MATERIALS
** 
*Material, name=tops
*Elastic
1., 0.3
** ----------------------------------------------------------------
** 
** STEP: Step-1
** 
*Step, name=Step-1, nlgeom=YES
*Static
1., 1., 1e-05, 1.
** 
** BOUNDARY CONDITIONS
** 
** Name: BC-1 Type: Symmetry/Antisymmetry/Encastre
*Boundary
Set-3, ENCASTRE
** 
** LOADS
** 
** Name: full   Type: Concentrated force
*Cload
full, 3, 0.03
** Name: half   Type: Concentrated force
*Cload
half, 3, 0.015
** Name: quarter   Type: Concentrated force
*Cload
quarter, 3, 0.0075
** 
** OUTPUT REQUESTS
** 
*Restart, write, frequency=0
** 
** FIELD OUTPUT: F-Output-1
** 
*Output, field
*Node Output
CF, RF, TF, U, UR
*Element Output, directions=YES
EEQUT, LE, MVF, P, PE, PEEQ, PEMAG, S, SEQUT, TE, TEEQ, TEVOL, TRNOR, TRSHR
*Contact Output
CDISP, CSTRESS
** 
** HISTORY OUTPUT: H-Output-1
** 
*Output, history, variable=PRESELECT
*End Step
