*Heading
** Job name: l2lowres Model name: Model-1
** Generated by: Abaqus/CAE 2018
*Preprint, echo=NO, model=NO, history=NO, contact=NO
**
** PARTS
**
*Part, name=Part-1
*Node
      1,         -10.,         -10.,          40.
      2,         -10.,          -9.,          40.
      3,         -10.,          -8.,          40.
      4,         -10.,          -7.,          40.
      5,         -10.,          -6.,          40.
      6,         -10.,          -5.,          40.
      7,         -10.,          -4.,          40.
      8,         -10.,          -3.,          40.
      9,         -10.,          -2.,          40.
     10,         -10.,          -1.,          40.
     11,         -10.,           0.,          40.
     12,         -10.,           1.,          40.
     13,         -10.,           2.,          40.
     14,         -10.,           3.,          40.
     15,         -10.,           4.,          40.
     16,         -10.,           5.,          40.
     17,         -10.,           6.,          40.
     18,         -10.,           7.,          40.
     19,         -10.,           8.,          40.
     20,         -10.,           9.,          40.
** ... 18061 like lines cut
*Element, type=C3D8
    1,   862,   863,   884,   883,     1,     2,    23,    22
    2,   863,   864,   885,   884,     2,     3,    24,    23
    3,   864,   865,   886,   885,     3,     4,    25,    24
    4,   865,   866,   887,   886,     4,     5,    26,    25
    5,   866,   867,   888,   887,     5,     6,    27,    26
    6,   867,   868,   889,   888,     6,     7,    28,    27
    7,   868,   869,   890,   889,     7,     8,    29,    28
    8,   869,   870,   891,   890,     8,     9,    30,    29
    9,   870,   871,   892,   891,     9,    10,    31,    30
   10,   871,   872,   893,   892,    10,    11,    32,    31
   11,   872,   873,   894,   893,    11,    12,    33,    32
   12,   873,   874,   895,   894,    12,    13,    34,    33
   13,   874,   875,   896,   895,    13,    14,    35,    34
   14,   875,   876,   897,   896,    14,    15,    36,    35
   15,   876,   877,   898,   897,    15,    16,    37,    36
   16,   877,   878,   899,   898,    16,    17,    38,    37
   17,   878,   879,   900,   899,    17,    18,    39,    38
   18,   879,   880,   901,   900,    18,    19,    40,    39
   19,   880,   881,   902,   901,    19,    20,    41,    40
   20,   881,   882,   903,   902,    20,    21,    42,    41
** ... 15980 like lines cut
*Nset, nset=Set-1, generate
     1,  18081,      1
*Elset, elset=Set-1, generate
     1,  16000,      1
** Section: tops
*Solid Section, elset=Set-1, material=tops
,
*End Part
**  
**
** ASSEMBLY
**
*Assembly, name=Assembly
**  
*Instance, name=Part-1-1, part=Part-1
         10.,           0.,          10.
         10.,           0.,          10.,          10., 0.707106790158355, 10.7071067901584,         180.
*End Instance
**  
*Nset, nset=bc, instance=Part-1-1
   841,   842,   843,   844,   845,   846,   847,   848,   849,   850,   851,   852,   853,   854,   855,   856
   857,   858,   859,   860,   861,  1702,  1703,  1704,  1705,  1706,  1707,  1708,  1709,  1710,  1711,  1712
  1713,  1714,  1715,  1716,  1717,  1718,  1719,  1720,  1721,  1722,  2563,  2564,  2565,  2566,  2567,  2568
  2569,  2570,  2571,  2572,  2573,  2574,  2575,  2576,  2577,  2578,  2579,  2580,  2581,  2582,  2583,  3424
  3425,  3426,  3427,  3428,  3429,  3430,  3431,  3432,  3433,  3434,  3435,  3436,  3437,  3438,  3439,  3440
  3441,  3442,  3443,  3444,  4285,  4286,  4287,  4288,  4289,  4290,  4291,  4292,  4293,  4294,  4295,  4296
  4297,  4298,  4299,  4300,  4301,  4302,  4303,  4304,  4305,  5146,  5147,  5148,  5149,  5150,  5151,  5152
  5153,  5154,  5155,  5156,  5157,  5158,  5159,  5160,  5161,  5162,  5163,  5164,  5165,  5166,  6007,  6008
  6009,  6010,  6011,  6012,  6013,  6014,  6015,  6016,  6017,  6018,  6019,  6020,  6021,  6022,  6023,  6024
  6025,  6026,  6027,  6868,  6869,  6870,  6871,  6872,  6873,  6874,  6875,  6876,  6877,  6878,  6879,  6880
  6881,  6882,  6883,  6884,  6885,  6886,  6887,  6888,  7729,  7730,  7731,  7732,  7733,  7734,  7735,  7736
  7737,  7738,  7739,  7740,  7741,  7742,  7743,  7744,  7745,  7746,  7747,  7748,  7749,  8590,  8591,  8592
  8593,  8594,  8595,  8596,  8597,  8598,  8599,  8600,  8601,  8602,  8603,  8604,  8605,  8606,  8607,  8608
  8609,  8610,  9451,  9452,  9453,  9454,  9455,  9456,  9457,  9458,  9459,  9460,  9461,  9462,  9463,  9464
  9465,  9466,  9467,  9468,  9469,  9470,  9471, 10312, 10313, 10314, 10315, 10316, 10317, 10318, 10319, 10320
 10321, 10322, 10323, 10324, 10325, 10326, 10327, 10328, 10329, 10330, 10331, 10332, 11173, 11174, 11175, 11176
 11177, 11178, 11179, 11180, 11181, 11182, 11183, 11184, 11185, 11186, 11187, 11188, 11189, 11190, 11191, 11192
 11193, 12034, 12035, 12036, 12037, 12038, 12039, 12040, 12041, 12042, 12043, 12044, 12045, 12046, 12047, 12048
 12049, 12050, 12051, 12052, 12053, 12054, 12895, 12896, 12897, 12898, 12899, 12900, 12901, 12902, 12903, 12904
 12905, 12906, 12907, 12908, 12909, 12910, 12911, 12912, 12913, 12914, 12915, 13756, 13757, 13758, 13759, 13760
** ... 8 like lines cut
*Elset, elset=bc, instance=Part-1-1
   781,   782,   783,   784,   785,   786,   787,   788,   789,   790,   791,   792,   793,   794,   795,   796
   797,   798,   799,   800,  1581,  1582,  1583,  1584,  1585,  1586,  1587,  1588,  1589,  1590,  1591,  1592
  1593,  1594,  1595,  1596,  1597,  1598,  1599,  1600,  2381,  2382,  2383,  2384,  2385,  2386,  2387,  2388
  2389,  2390,  2391,  2392,  2393,  2394,  2395,  2396,  2397,  2398,  2399,  2400,  3181,  3182,  3183,  3184
  3185,  3186,  3187,  3188,  3189,  3190,  3191,  3192,  3193,  3194,  3195,  3196,  3197,  3198,  3199,  3200
  3981,  3982,  3983,  3984,  3985,  3986,  3987,  3988,  3989,  3990,  3991,  3992,  3993,  3994,  3995,  3996
  3997,  3998,  3999,  4000,  4781,  4782,  4783,  4784,  4785,  4786,  4787,  4788,  4789,  4790,  4791,  4792
  4793,  4794,  4795,  4796,  4797,  4798,  4799,  4800,  5581,  5582,  5583,  5584,  5585,  5586,  5587,  5588
  5589,  5590,  5591,  5592,  5593,  5594,  5595,  5596,  5597,  5598,  5599,  5600,  6381,  6382,  6383,  6384
  6385,  6386,  6387,  6388,  6389,  6390,  6391,  6392,  6393,  6394,  6395,  6396,  6397,  6398,  6399,  6400
  7181,  7182,  7183,  7184,  7185,  7186,  7187,  7188,  7189,  7190,  7191,  7192,  7193,  7194,  7195,  7196
  7197,  7198,  7199,  7200,  7981,  7982,  7983,  7984,  7985,  7986,  7987,  7988,  7989,  7990,  7991,  7992
  7993,  7994,  7995,  7996,  7997,  7998,  7999,  8000,  8781,  8782,  8783,  8784,  8785,  8786,  8787,  8788
  8789,  8790,  8791,  8792,  8793,  8794,  8795,  8796,  8797,  8798,  8799,  8800,  9581,  9582,  9583,  9584
  9585,  9586,  9587,  9588,  9589,  9590,  9591,  9592,  9593,  9594,  9595,  9596,  9597,  9598,  9599,  9600
 10381, 10382, 10383, 10384, 10385, 10386, 10387, 10388, 10389, 10390, 10391, 10392, 10393, 10394, 10395, 10396
 10397, 10398, 10399, 10400, 11181, 11182, 11183, 11184, 11185, 11186, 11187, 11188, 11189, 11190, 11191, 11192
 11193, 11194, 11195, 11196, 11197, 11198, 11199, 11200, 11981, 11982, 11983, 11984, 11985, 11986, 11987, 11988
 11989, 11990, 11991, 11992, 11993, 11994, 11995, 11996, 11997, 11998, 11999, 12000, 12781, 12782, 12783, 12784
 12785, 12786, 12787, 12788, 12789, 12790, 12791, 12792, 12793, 12794, 12795, 12796, 12797, 12798, 12799, 12800
** ... 5 like lines cut
*Nset, nset=full, instance=Part-1-1
   903,   924,   945,   966,   987,  1008,  1029,  1050,  1071,  1764,  1785,  1806,  1827,  1848,  1869,  1890
  1911,  1932,  2625,  2646,  2667,  2688,  2709,  2730,  2751,  2772,  2793,  3486,  3507,  3528,  3549,  3570
  3591,  3612,  3633,  3654,  4347,  4368,  4389,  4410,  4431,  4452,  4473,  4494,  4515,  5208,  5229,  5250
  5271,  5292,  5313,  5334,  5355,  5376,  6069,  6090,  6111,  6132,  6153,  6174,  6195,  6216,  6237,  6930
  6951,  6972,  6993,  7014,  7035,  7056,  7077,  7098,  7791,  7812,  7833,  7854,  7875,  7896,  7917,  7938
  7959,  8652,  8673,  8694,  8715,  8736,  8757,  8778,  8799,  8820,  9513,  9534,  9555,  9576,  9597,  9618
  9639,  9660,  9681, 10374, 10395, 10416, 10437, 10458, 10479, 10500, 10521, 10542, 11235, 11256, 11277, 11298
 11319, 11340, 11361, 11382, 11403, 12096, 12117, 12138, 12159, 12180, 12201, 12222, 12243, 12264, 12957, 12978
 12999, 13020, 13041, 13062, 13083, 13104, 13125, 13818, 13839, 13860, 13881, 13902, 13923, 13944, 13965, 13986
 14679, 14700, 14721, 14742, 14763, 14784, 14805, 14826, 14847, 15540, 15561, 15582, 15603, 15624, 15645, 15666
 15687, 15708, 16401, 16422, 16443, 16464, 16485, 16506, 16527, 16548, 16569
*Nset, nset=half, instance=Part-1-1
    42,    63,    84,   105,   126,   147,   168,   189,   210,   882,  1092,  1743,  1953,  2604,  2814,  3465
  3675,  4326,  4536,  5187,  5397,  6048,  6258,  6909,  7119,  7770,  7980,  8631,  8841,  9492,  9702, 10353
 10563, 11214, 11424, 12075, 12285, 12936, 13146, 13797, 14007, 14658, 14868, 15519, 15729, 16380, 16590, 17262
 17283, 17304, 17325, 17346, 17367, 17388, 17409, 17430
*Nset, nset=quarter, instance=Part-1-1
    21,   231, 17241, 17451
*End Assembly
** 
** MATERIALS
** 
*Material, name=tops
*Elastic
1., 0.3
** ----------------------------------------------------------------
** 
** STEP: Step-1
** 
*Step, name=Step-1, nlgeom=YES
*Static
1., 1., 1e-05, 1.
** 
** BOUNDARY CONDITIONS
** 
** Name: BC-1 Type: Symmetry/Antisymmetry/Encastre
*Boundary
bc, ENCASTRE
** 
** LOADS
** 
** Name: full   Type: Concentrated force
*Cload
full, 3, 0.03
** Name: half   Type: Concentrated force
*Cload
half, 3, 0.015
** Name: quarter   Type: Concentrated force
*Cload
quarter, 3, 0.0075
** 
** OUTPUT REQUESTS
** 
*Restart, write, frequency=0
** 
** FIELD OUTPUT: F-Output-1
** 
*Output, field
*Node Output
CF, RF, TF, U, UR
*Element Output, directions=YES
EEQUT, LE, MVF, P, PE, PEEQ, PEMAG, S, SEQUT, TE, TEEQ, TEVOL, TRNOR, TRSHR
*Contact Output
CDISP, CSTRESS
** 
** HISTORY OUTPUT: H-Output-1
** 
*Output, history, variable=PRESELECT
*End Step
